Microsoft (R) COFF/PE Dumper Version 14.29.30137.0
Copyright (C) Microsoft Corporation.  All rights reserved.


Dump of file C:\Windows\WinSxS\amd64_microsoft-windows-refs_31bf3856ad364e35_10.0.25197.1000_none_16b5ce51eb43fce4\refs.sys

File Type: EXECUTABLE IMAGE

  Image has the following dependencies:

    ntoskrnl.exe
    HAL.dll
    ext-ms-win-ntos-ksr-l1-1-1.dll

  Section contains the following imports:

    ntoskrnl.exe
             1C01E6048 Import Address Table
             1C01E6F70 Import Name Table
                     0 time date stamp
                     0 Index of first forwarder reference

                          EE ExFreePoolWithTag
                         4D8 KeInitializeEvent
                         590 KeWaitForSingleObject
                         13F ExReleasePushLockEx
                         139 ExReleaseFastMutex
                         236 FsRtlOplockIsFastIoPossible
                          28 CcFlushCache
                         116 ExIsResourceAcquiredExclusiveLite
                         200 FsRtlIsNtstatusExpected
                         19F FsRtlAreNamesEqual
                          42 CcPurgeCacheSection
                          A2 ExAcquireFastMutex
                          3D CcMdlWriteComplete
                         1AA FsRtlCheckOplock
                         1A9 FsRtlCheckLockForWriteAccess
                         5FC MmMapLockedPagesSpecifyCache
                          40 CcPrepareMdlWrite
                         21C FsRtlNormalizeNtstatus
                         1AB FsRtlCheckOplockEx
                         4A4 KeDelayExecutionThread
                          3B CcMdlReadComplete
                         6B2 ObDereferenceObjectDeferDelete
                          52 CcSetParallelFlushFile
                         492 KeBugCheckEx
                          56 CcUninitializeCacheMap
                         6D6 ObfDereferenceObject
                          A9 ExAcquireResourceExclusiveLite
                          3F CcPinRead
                         334 IoCreateStreamFileObjectLite
                          1C CcCoherencyFlushAndPurgeCache
                         398 IoGetTopLevelIrp
                          41 CcPreparePinWrite
                         540 KeReleaseMutant
                          32 CcInitializeCacheMap
                         5C8 MmCanFileBeTruncated
                         396 IoGetStackLimits
                         1C4 FsRtlFastUnlockAll
                         4AD KeEnterCriticalRegion
                         22A FsRtlNotifyVolumeEvent
                         1DC FsRtlHeatLogIo
                         3C7 IoRaiseInformationalHardError
                         41B IoSetTopLevelIrp
                         31B IoClearActivityIdThread
                         363 IoGetActivityIdThread
                         362 IoGetActivityIdIrp
                         5D4 MmForceSectionClosed
                         3E3 IoRemoveShareAccess
                         21E FsRtlNotifyCleanup
                         220 FsRtlNotifyFilterChangeDirectory
                         5D5 MmForceSectionClosedEx
                         45A IofCompleteRequest
                         38F IoGetRequestorProcess
                         4B2 KeExpandKernelStackAndCalloutEx
                         5D3 MmFlushImageSection
                         3B6 IoPropagateActivityIdToThread
                         4FA KeLeaveCriticalRegion
                         522 KeQueryPriorityThread
                         173 ExUnblockOnAddressPushLockEx
                         122 ExQueueWorkItem
                         36E IoGetCurrentProcess
                         140 ExReleasePushLockExclusiveEx
                          C4 ExBlockOnAddressPushLock
                         127 ExRaiseStatus
                         1B2 FsRtlCurrentBatchOplock
                         30B IoCancelFileOpen
                         22F FsRtlOplockBreakH
                         1BF FsRtlDissectName
                         30C IoCancelIrp
                         1B4 FsRtlCurrentOplockH
                         6B8 ObGetObjectSecurity
                          70 DbgPrintEx
                         1C7 FsRtlFindExtraCreateParameter
                         318 IoCheckShareAccess
                         408 IoSetInformation
                          5C CcWaitForCurrentLazyWriterActivity
                          BB ExAllocateFromPagedLookasideList
                         1A5 FsRtlCancellableWaitForSingleObject
                         233 FsRtlOplockFsctrl
                         230 FsRtlOplockBreakH2
                          F1 ExFreeToPagedLookasideList
                         417 IoSetShareAccessEx
                         564 KeSetEvent
                         6CF ObReleaseObjectSecurity
                         18B FsRtlAcknowledgeEcp
                         319 IoCheckShareAccessEx
                         1A2 FsRtlAreVolumeStartupApplicationsComplete
                         439 IoUpdateShareAccess
                         53A KeReleaseGuardedMutex
                         1FF FsRtlIsNonEmptyDirectoryReparsePointAllowed
                         26E FsRtlValidateReparsePointBuffer
                         5D2 MmDoesFileHaveUserWritableReferences
                         475 KeAcquireGuardedMutex
                         3A9 IoIsOperationSynchronous
                         389 IoGetIrpExtraCreateParameter
                         30F IoCheckEaBufferValidity
                         962 RtlNtStatusToDosErrorNoTeb
                         C4A _strnicmp
                         77B PsGetProcessImageFileName
                          39 CcMapData
                         308 IoBuildPartialMdl
                         627 MmUnlockPages
                         610 MmProbeAndLockPages
                         41E IoSizeofWorkItem
                         156 ExSetResourceOwnerPointerEx
                         412 IoSetMasterIrpStatus
                          1F CcCopyWrite
                         5FD MmMapLockedPagesWithReservedMapping
                         35B IoFreeIrp
                         5C7 MmBuildMdlForNonPagedPool
                         2FB IoAllocateMdl
                         40D IoSetIoPriorityHint
                         386 IoGetIoPriorityHint
                         144 ExReleaseResourceForThreadLite
                         4BC KeFlushIoBuffers
                         3A0 IoInitializeWorkItem
                         306 IoBuildAsynchronousFsdRequest
                         354 IoFileObjectType
                         60A MmMdlPageContentsState
                          F4 ExGetExclusiveWaiterCount
                         6C6 ObReferenceObjectByHandle
                         2FA IoAllocateIrpEx
                         62B MmUnmapReservedMapping
                          58 CcUnpinData
                         3C4 IoQueueWorkItemEx
                         35E IoFreeMdl
                         203 FsRtlIsTotalDeviceFailure
                         42D IoUninitializeWorkItem
                         459 IofCallDriver
                         62A MmUnmapLockedPages
                         3A4 IoIs32bitProcess
                         3B0 IoMakeAssociatedIrpEx
                         1FD FsRtlIsNameInExpression
                         1C1 FsRtlDoesNameContainWildCards
                         A2A SeCaptureSubjectContext
                         222 FsRtlNotifyFilterReportChange
                         637 NlsOemLeadByteInfo
                         206 FsRtlLegalAnsiCharacterArray
                         97A RtlPrefixString
                         840 RtlCompareString
                         8F7 RtlInitString
                         635 NlsMbOemCodePageTag
                         9FC RtlUpperString
                         A1D SeAuditHardLinkCreation
                         A11 SeAccessCheck
                         37F IoGetFileObjectGenericMapping
                         A27 SeAuditingHardLinkEventsWithContext
                         8FC RtlInitUnicodeString
                         73A ProbeForWrite
                         6C5 ObQueryObjectAuditingByHandle
                         A67 SeReleaseSubjectContext
                          1D CcCopyRead
                         A3F SeDeleteObjectAuditAlarm
                         1B8 FsRtlDedupChangeUninit
                          AF ExAcquireSharedStarveExclusive
                          F0 ExFreeToNPagedLookasideList
                          BA ExAllocateFromNPagedLookasideList
                          CB ExConvertExclusiveToSharedLite
                         40F IoSetIoPriorityHintIntoThread
                         22B FsRtlNotifyVolumeEventEx
                         7B2 PsIsThreadTerminating
                         234 FsRtlOplockFsctrlEx
                         529 KeQueryUnbiasedInterruptTime
                         1B5 FsRtlDedupChangeInit
                         2F1 IoAcquireVpbSpinLock
                         3F6 IoRetrievePriorityInfo
                         307 IoBuildDeviceIoControlRequest
                         1C3 FsRtlFastCheckLockForWrite
                         1A7 FsRtlCheckLockForOplockRequest
                          9A EtwWriteTransfer
                         7BB PsLookupProcessByProcessId
                         514 KeQueryHighestNodeNumber
                         237 FsRtlOplockIsSharedRequest
                         238 FsRtlOplockKeysEqual
                         2FF IoApplyPriorityInfoThread
                         1BD FsRtlDismountComplete
                         3DF IoReleaseVpbSpinLock
                         739 ProbeForRead
                         480 KeAcquireSpinLockRaiseToDpc
                          35 CcIsCacheManagerCallbackNeeded
                         544 KeReleaseSpinLock
                         543 KeReleaseSemaphore
                          24 CcErrorCallbackRoutine
                         6D8 ObfReferenceObject
                         3F9 IoSetActivityIdThread
                         5C6 MmBadPointer
                          A8 ExAcquirePushLockSharedEx
                         5C3 MmAllocatePagesForMdlEx
                         12D ExRegisterCallback
                         8FF RtlInitializeBitMap
                         240 FsRtlProcessFileLock
                         1C6 FsRtlFastUnlockSingle
                         1A1 FsRtlAreThereWaitingFileLocks
                         23F FsRtlPrivateLock
                         1C5 FsRtlFastUnlockAllByKey
                         117 ExIsResourceAcquiredSharedLite
                         81A RtlAnsiStringToUnicodeString
                         BA9 ZwQueryLicenseValue
                         463 KdDebuggerEnabled
                         6C4 ObQueryNameString
                         88E RtlEqualUnicodeString
                         857 RtlCopyUnicodeString
                         1D8 FsRtlGetSectorSizeInformation
                         8F3 RtlInitAnsiString
                         3D9 IoRegisterPlugPlayNotification
                         1A3 FsRtlBalanceReads
                         6DD PcwCreateInstance
                         328 IoCreateDevice
                         400 IoSetDeviceToVerify
                         1DB FsRtlHeatInit
                         562 KeSetCoalescableTimer
                         5D1 MmDisableModifiedWriteOfSection
                         1B6 FsRtlDedupChangeLogOverwriteOrFree
                          5B CcUnregisterExternalCache
                          57 CcUnmapFileOffsetFromSystemCache
                         9AE RtlSetBit
                         4E0 KeInitializeSpinLock
                         3B3 IoOpenDeviceRegistryKey
                          19 CcAddDirtyPagesToExternalCache
                         82B RtlCaptureStackBackTrace
                          22 CcDeductDirtyPagesFromExternalCache
                         377 IoGetDevicePropertyData
                         1DD FsRtlHeatLogTierMove
                          49 CcSetAdditionalCacheAttributesEx
                         757 PsGetCurrentProcessId
                         333 IoCreateStreamFileObjectEx2
                         518 KeQueryLogicalProcessorRelationship
                         111 ExIsFastResourceContended
                          43 CcRegisterExternalCache
                         9B0 RtlSetBits
                          31 CcGetNumberOfMappedPages
                         9CF RtlTestBit
                         B24 ZwClose
                         555 KeResetEvent
                         60E MmPrefetchPages
                         8BB RtlFreeOemString
                         9E3 RtlUnicodeStringToCountedOemString
                          3C CcMdlWriteAbort
                          1B CcCanIWrite
                          95 EtwWrite
                         1C2 FsRtlFastCheckLockForRead
                         31D IoClearFsTrackOffsetState
                         2ED IoAcquireCancelSpinLock
                         3DC IoReleaseCancelSpinLock
                         880 RtlDuplicateUnicodeString
                         452 IoWithinStackLimits
                         947 RtlLengthSecurityDescriptor
                         6DE PcwRegister
                         906 RtlInitializeSid
                         4D4 KeInitializeDpc
                         4D9 KeInitializeGuardedMutex
                         9CA RtlSubAuthoritySid
                         489 KeAllocateCalloutStackEx
                         9B4 RtlSetDaclSecurityDescriptor
                         215 FsRtlMdlReadCompleteDev
                         8BE RtlFreeUnicodeString
                         102 ExInitializePagedLookasideList
                         A1A SeAssignSecurity
                         219 FsRtlMdlWriteCompleteDev
                         809 RtlAddAccessAllowedAceEx
                         B6F ZwNotifyChangeKey
                         244 FsRtlQueryMaximumVirtualDiskNestingLevel
                         4E2 KeInitializeTimer
                         8C8 RtlGetCompressionWorkSpaceSize
                         4C0 KeFreeCalloutStack
                         946 RtlLengthRequiredSid
                         808 RtlAddAccessAllowedAce
                         3D4 IoRegisterFileSystem
                         4DF KeInitializeSemaphore
                         8EA RtlGetVersion
                         101 ExInitializeNPagedLookasideList
                         5E6 MmGetSystemRoutineAddress
                          8F EtwRegister
                         BB5 ZwQueryValueKey
                         85A RtlCreateAcl
                         44C IoWMIRegistrationControl
                         4DB KeInitializeMutant
                         5F2 MmIsThisAnNtAsSystem
                         245 FsRtlRegisterFileSystemFilterCallbacks
                         861 RtlCreateSecurityDescriptor
                         2EB InitializeSListHead
                         50B KeQueryActiveProcessorCountEx
                         104 ExInitializeResourceLite
                         B76 ZwOpenKey
                         4C6 KeGetCurrentProcessorNumberEx
                         43F IoVolumeDeviceToDosName
                         6DC PcwCloseInstance
                         48E KeAreAllApcsDisabled
                         9C5 RtlSplay
                         86E RtlDelete
                         83E RtlCompareMemory
                          53 CcSetReadAheadGranularity
                         1E2 FsRtlIncrementCcFastReadResourceMiss
                          3A CcMdlRead
                         1E3 FsRtlIncrementCcFastReadWait
                         1E1 FsRtlIncrementCcFastReadNotPossible
                         1DF FsRtlIncrementCcFastMdlReadWait
                          1A CcAsyncCopyRead
                         1E0 FsRtlIncrementCcFastReadNoWait
                         1A8 FsRtlCheckLockForReadAccess
                         A56 SePrivilegeCheck
                          23 CcDeferWrite
                         1AD FsRtlCheckOplockForFsFilterCallback
                         A72 SeShouldCheckForAccessRightsFromParent
                         A83 SeValidSecurityDescriptor
                         A19 SeAppendPrivileges
                         81D RtlAppendUnicodeStringToString
                         A45 SeFreePrivileges
                         8E1 RtlGetSaclSecurityDescriptor
                         A70 SeSetSecurityDescriptorInfoEx
                         313 IoCheckLinkShareAccess
                         A1B SeAssignSecurityEx
                         A5F SeQuerySecurityDescriptorInfo
                         A54 SeOpenObjectForDeleteAuditAlarm
                         A16 SeAdjustAccessStateForAccessConstraints
                         A12 SeAccessCheckEx
                         A21 SeAuditingAnyFileEventsWithContextEx
                         974 RtlOwnerAcesPresent
                         A3C SeDeassignSecurity
                         A51 SeOpenObjectAuditAlarm
                         A7F SeUnlockSubjectContext
                         A30 SeComputeAutoInheritByObjectType
                         A4E SeLockSubjectContext
                         A24 SeAuditingFileEventsWithContextEx
                          F8 ExGetPreviousMode
                         89B RtlFindAceByType
                         8CC RtlGetDaclSecurityDescriptor
                         A15 SeAccessCheckWithHint
                          94 EtwUnregister
                         309 IoBuildSynchronousFsdRequest
                         26F FsRtlVolumeDeviceToCorrelationId
                         440 IoVolumeDeviceToGuid
                         227 FsRtlNotifyInitializeSync
                          FC ExInitializeAutoExpandPushLock
                         1ED FsRtlInitializeOplock
                         C59 _vsnwprintf
                         542 KeReleaseQueuedSpinLock
                         826 RtlAvlInsertNodeEx
                          D7 ExDeleteResourceLite
                         342 IoDeleteDevice
                          C8 ExCleanupAutoExpandPushLock
                         262 FsRtlTeardownPerStreamContexts
                         97B RtlPrefixUnicodeString
                         5BC MmAllocateMappingAddress
                         229 FsRtlNotifyUninitializeSync
                         26B FsRtlUninitializeOplock
                         5D8 MmFreeMappingAddress
                         1CD FsRtlFreeFileLock
                         261 FsRtlTeardownPerFileContexts
                         47C KeAcquireQueuedSpinLock
                         130 ExReinitializeResourceLite
                         199 FsRtlAllocateFileLock
                         1DE FsRtlHeatUninit
                         827 RtlAvlRemoveNode
                         5DF MmGetMaximumFileSectionSize
                          92 EtwSetInformation
                         4E4 KeInitializeTimerEx
                         493 KeCancelTimer
                         526 KeQueryTimeIncrement
                         4BD KeFlushQueuedDpcs
                         B73 ZwOpenEvent
                         52D KeReadStateEvent
                         56C KeSetPriorityThread
                          4C CcSetDirtyPinnedData
                         43C IoVerifyVolume
                         433 IoUnregisterPlugPlayNotification
                         968 RtlNumberOfSetBits
                         407 IoSetHardErrorOrVerifyDevice
                         841 RtlCompareUnicodeString
                         1DA FsRtlGetVirtualDiskNestingLevel
                         4C4 KeGetCurrentIrql
                         749 PsCreateSystemThread
                         16F ExTryQueueWorkItem
                         1B7 FsRtlDedupChangeLogWrite
                          21 CcCopyWriteWontFlush
                          C1 ExAllocatePoolWithTag
                         8A9 RtlFindNextForwardRunClear
                         498 KeClearEvent
                         145 ExReleaseResourceLite
                          AA ExAcquireResourceSharedLite
                          A7 ExAcquirePushLockExclusiveEx
                          4E CcSetFileSizesEx
                          CF ExCreateCallback
                         C04 __C_specific_handler
                          9E ExAcquireAutoExpandPushLockShared
                         132 ExReleaseAutoExpandPushLockShared
                         C3E _purecall
                          DC ExDisownFastResource
                          FF ExInitializeFastResource
                         136 ExReleaseDisownedFastResource
                          A6 ExAcquireFastResourceSharedStarveExclusive
                         113 ExIsFastResourceHeldExclusive
                         12F ExReinitializeFastResource
                          A4 ExAcquireFastResourceExclusive
                         13C ExReleaseFastResource
                         112 ExIsFastResourceHeld
                          D3 ExDeleteFastResource
                          CC ExConvertFastResourceExclusiveToShared
                          FE ExInitializeFastOwnerEntry
                          A5 ExAcquireFastResourceShared
                         837 RtlClearBits
                         561 KeSetBasePriorityThread
                         58E KeWaitForMultipleObjects
                         157 ExSetTimer
                          C3 ExAllocateTimer
                          D8 ExDeleteTimer
                         994 RtlRandomEx
                         42A IoTransferActivityId
                         477 KeAcquireInStackQueuedSpinLock
                         53C KeReleaseInStackQueuedSpinLock
                         179 ExUuidCreate
                          9D ExAcquireAutoExpandPushLockExclusive
                         131 ExReleaseAutoExpandPushLockExclusive
                         C81 qsort
                         61E MmSetAddressRangeModified
                         833 RtlClearAllBits
                         8AD RtlFindSetBits
                         823 RtlAreBitsSet
                         16A ExTryAcquirePushLockSharedEx
                         169 ExTryAcquirePushLockExclusiveEx
                         821 RtlAreBitsClear
                         89C RtlFindClearBits
                         96A RtlNumberOfSetBitsInRange
                         835 RtlClearBit
                         9AC RtlSetAllBits
                         165 ExTryAcquireAutoExpandPushLockExclusive
                         166 ExTryAcquireAutoExpandPushLockShared
                         189 ExpInterlockedPushEntrySList
                         188 ExpInterlockedPopEntrySList
                         39E IoInitializeRemoveLockEx
                         874 RtlDeleteHashTable
                         2F0 IoAcquireRemoveLockEx
                         3DD IoReleaseRemoveLockAndWaitEx
                         8F6 RtlInitEnumerationHashTable
                         885 RtlEnumerateEntryHashTable
                         99B RtlRemoveEntryHashTable
                         882 RtlEndEnumerationHashTable
                         85E RtlCreateHashTableEx
                         896 RtlExtractBitMap
                         8F9 RtlInitStrongEnumerationHashTable
                         9C8 RtlStronglyEnumerateEntryHashTable
                         883 RtlEndStrongEnumerationHashTable
                         943 RtlIsZeroMemory
                         952 RtlLookupEntryHashTable
                         90D RtlInsertEntryHashTable
                         3DE IoReleaseRemoveLockEx
                          EC ExFreePool
                          D5 ExDeleteNPagedLookasideList
                         852 RtlCopyMemoryNonTemporal
                         187 ExpInterlockedFlushSList
                         965 RtlNumberOfClearBits
                         84B RtlCopyBitMap
                          D6 ExDeletePagedLookasideList
                          BD ExAllocatePool2
                         390 IoGetRequestorProcessId
                          DE ExEnterCriticalRegionAndAcquireResourceExclusive
                         142 ExReleaseResourceAndLeaveCriticalRegion
                         C57 _vsnprintf
                         6DB PcwAddInstance
                         C3A _local_unwind

    HAL.dll
             1C01E6000 Import Address Table
             1C01E6F28 Import Name Table
                     0 time date stamp
                     0 Index of first forwarder reference

                          54 KeQueryPerformanceCounter

    ext-ms-win-ntos-ksr-l1-1-1.dll
             1C01E6010 Import Address Table
             1C01E6F38 Import Name Table
                     0 time date stamp
                     0 Index of first forwarder reference

                           0 KsrClaimPersistedMemory
                           4 KsrFreePersistedMemory
                           E KsrPersistMemory
                           9 KsrMdlToMemoryRuns
                           6 KsrGetFirmwareInformation
                           3 KsrEnumeratePersistedMemory

  Summary

       23000 .data
        5000 .idata
       11000 .pdata
       2F000 .rdata
        9000 .reloc
       43000 .rsrc
      182000 .text
        1000 GFIDS
        4000 INIT
       97000 PAGE
        1000 fothk
        1000 msrodata
