Microsoft (R) COFF/PE Dumper Version 14.29.30137.0
Copyright (C) Microsoft Corporation.  All rights reserved.


Dump of file C:\Windows\WinSxS\amd64_dual_rtucx21x64.inf_31bf3856ad364e35_10.0.25197.1000_none_87d955ffdc89b0a3\rtucx21x64.sys

File Type: EXECUTABLE IMAGE

  Image has the following dependencies:

    NDIS.SYS
    ntoskrnl.exe
    WppRecorder.sys
    WDFLDR.SYS

  Section contains the following imports:

    NDIS.SYS
             14012D000 Import Address Table
             14014C870 Import Name Table
                     0 time date stamp
                     0 Index of first forwarder reference

                         181 NdisMSendNetBufferListsComplete
                         156 NdisMIndicateReceiveNetBufferLists
                         1AE NdisOpenConfigurationKeyByName
                         1C4 NdisReadConfiguration
                         221 NdisWriteConfiguration
                          43 NdisCloseConfiguration
                         1C8 NdisReadNetworkAddress
                         1AC NdisOpenConfigurationEx
                          AB NdisFreeNetBufferList
                          A6 NdisFreeMdl
                         188 NdisMSetMiniportAttributes
                         159 NdisMIndicateStatusEx
                          1E NdisAllocateNetBufferListPool
                          AD NdisFreeNetBufferListPool
                          1C NdisAllocateNetBufferList
                          1B NdisAllocateNetBufferAndNetBufferList
                          20 NdisAllocateNetBufferPool
                          AE NdisFreeNetBufferPool
                          1A NdisAllocateNetBuffer
                          AA NdisFreeNetBuffer
                          16 NdisAllocateMdl
                         155 NdisMIdleNotificationConfirm
                         153 NdisMIdleNotificationComplete
                         17B NdisMRemoveMiniport
                         162 NdisMOidRequestComplete
                         17D NdisMResetComplete
                         1CC NdisRegisterDeviceEx
                          77 NdisDeregisterDeviceEx
                          BF NdisGetDeviceReservedExtension
                         222 NdisWriteErrorLogEntry
                          D9 NdisGetVersion
                         1E5 NdisSetOptionalHandlers
                         14C NdisMGetDeviceProperty
                         177 NdisMRegisterMiniportDriver
                         141 NdisMDeregisterMiniportDriver

    ntoskrnl.exe
             14012D170 Import Address Table
             14014C9E0 Import Name Table
                     0 time date stamp
                     0 Index of first forwarder reference

                         4B7 KeInitializeSpinLock
                         469 KeBugCheckEx
                         423 IoWMIOpenBlock
                         424 IoWMIQueryAllData
                         6AB ObfDereferenceObject
                         961 RtlRandomEx
                         9B1 RtlUnicodeStringToInteger
                         8CB RtlInitUnicodeString
                         4AF KeInitializeEvent
                         53A KeSetEvent
                         4B3 KeInitializeMutex
                         566 KeWaitForSingleObject
                         47B KeDelayExecutionThread
                         51A KeReleaseSpinLock
                         600 MmUnmapLockedPages
                         2F0 IoBuildSynchronousFsdRequest
                         435 IofCallDriver
                         340 IoFreeMdl
                         357 IoGetDeviceProperty
                         AE9 ZwClose
                         B3B ZwOpenKey
                         B15 ZwEnumerateKey
                         B79 ZwQueryValueKey
                         2E0 IoAllocateIrp
                         2E2 IoAllocateMdl
                         2F3 IoCancelIrp
                         33D IoFreeIrp
                         9CF RtlVerifyVersionInfo
                          C6 ExCreateCallback
                         120 ExRegisterCallback
                         166 ExUnregisterCallback
                         8C6 RtlInitString
                         517 KeReleaseMutex
                         436 IofCompleteRequest
                         3DA IoSetDeviceInterfacePropertyData
                          8E EtwUnregister
                         49D KeGetCurrentProcessorNumberEx
                         5D2 MmMapLockedPagesSpecifyCache
                         2EF IoBuildPartialMdl
                         59D MmBuildMdlForNonPagedPool
                         8C2 RtlInitAnsiString
                         7E9 RtlAnsiStringToUnicodeString
                         88D RtlFreeUnicodeString
                         5BC MmGetSystemRoutineAddress
                         428 IoWMIRegistrationControl
                          89 EtwRegister
                          8C EtwSetInformation
                         B4E ZwPowerInformation
                         9B6 RtlUnicodeToMultiByteN
                         7E7 RtlAnsiCharToUnicodeChar
                         2DF IoAllocateErrorLogEntry
                         771 PsGetVersion
                          B7 ExAllocatePoolWithQuotaTag
                         B76 ZwQuerySystemInformation
                         A81 VerSetConditionMask
                          E5 ExFreePoolWithTag
                          B5 ExAllocatePool3
                         3D4 IoReuseIrp
                         826 RtlCopyUnicodeString
                          6F DbgPrintEx
                         49B KeGetCurrentIrql
                          94 EtwWriteTransfer
                         42F IoWriteErrorLogEntry
                         457 KeAcquireSpinLockRaiseToDpc

    WppRecorder.sys
             14012D148 Import Address Table
             14014C9B8 Import Name Table
                     0 time date stamp
                     0 Index of first forwarder reference

                           3 WppAutoLogStop
                           2 WppAutoLogStart
                           4 WppAutoLogTrace
                          10 imp_WppRecorderReplay

    WDFLDR.SYS
             14012D120 Import Address Table
             14014C990 Import Name Table
                     0 time date stamp
                     0 Index of first forwarder reference

                           7 WdfVersionBindClass
                           8 WdfVersionUnbind
                           6 WdfVersionBind
                           9 WdfVersionUnbindClass

  Summary

        3000 .data
        3000 .pdata
        F000 .rdata
        2000 .reloc
        1000 .rsrc
      12C000 .text
        2000 INIT
        A000 PAGE
