Microsoft (R) COFF/PE Dumper Version 14.29.30137.0
Copyright (C) Microsoft Corporation.  All rights reserved.


Dump of file C:\Windows\WinSxS\amd64_dual_xboxgip.inf_31bf3856ad364e35_10.0.25197.1000_none_dc3ad4c656670ab3\devauthe.sys

File Type: DLL

  Image has the following dependencies:

    ntoskrnl.exe
    cng.sys

  Section contains the following imports:

    ntoskrnl.exe
             1C002D0A8 Import Address Table
             1C002D208 Import Name Table
                     0 time date stamp
                     0 Index of first forwarder reference

                         83E RtlCompareMemory
                         C69 atoi
                         C94 strncpy
                         9D1 RtlTimeFieldsToTime
                          EE ExFreePoolWithTag
                          C1 ExAllocatePoolWithTag
                         857 RtlCopyUnicodeString
                         492 KeBugCheckEx

    cng.sys
             1C002D000 Import Address Table
             1C002D160 Import Name Table
                     0 time date stamp
                     0 Index of first forwarder reference

                           8 BCryptDestroyHash
                          23 BCryptSecretAgreement
                           A BCryptDestroySecret
                           5 BCryptDeriveKey
                          10 BCryptExportKey
                          15 BCryptGenerateKeyPair
                          11 BCryptFinalizeKeyPair
                           2 BCryptCreateHash
                          1A BCryptHashData
                           D BCryptEncrypt
                           9 BCryptDestroyKey
                          18 BCryptGetProperty
                          28 BCryptVerifySignature
                          1E BCryptOpenAlgorithmProvider
                          14 BCryptGenRandom
                          12 BCryptFinishHash
                           1 BCryptCloseAlgorithmProvider
                          25 BCryptSignHash
                          1C BCryptImportKeyPair
                           B BCryptDuplicateHash

  Section contains the following exports for DevAuthE.sys

    00000000 characteristics
    509FA47D time date stamp
        0.00 version
           1 ordinal base
          10 number of functions
          10 number of names

    ordinal hint RVA      name

          1    0 0000A7D0 DevAuthExportKey
          2    1 0000A8E0 DevAuthGetDeviceInfo
          3    2 0000AAD0 DevAuthGetHostMessage
          4    3 0000ABB0 DevAuthGetStatus
          5    4 0000AC10 DevAuthGetTelemetryInfo
          6    5 0000ADD0 DevAuthProcessDeviceMessage
          7    6 0000AE80 DevAuthRegister
          8    7 0000B050 DevAuthUnregister
          9    8 0000A6B0 DllInitialize
         10    9 0002E010 DllUnload

  Summary

        1000 .data
        1000 .edata
        1000 .idata
        1000 .pdata
        9000 .rdata
        1000 .reloc
        1000 .rsrc
       21000 .text
        1000 GFIDS
        1000 INIT
        1000 PAGE
        1000 fothk
