Microsoft (R) COFF/PE Dumper Version 14.29.30137.0
Copyright (C) Microsoft Corporation.  All rights reserved.


Dump of file C:\Windows\System32\quser.exe

File Type: EXECUTABLE IMAGE

  Image has the following dependencies:

    WINSTA.dll
    UTILDLL.dll
    USER32.dll
    KERNEL32.dll
    msvcrt.dll

  Section contains the following imports:

    WINSTA.dll
             1400052D8 Import Address Table
             140006170 Import Name Table
                     0 time date stamp
                     0 Index of first forwarder reference

                          66 WinStationQueryInformationW
                          31 WinStationFreeMemory
                          2B WinStationEnumerateW
                          5F WinStationOpenServerW

    UTILDLL.dll
             1400052C0 Import Address Table
             140006158 Import Name Table
                     0 time date stamp
                     0 Index of first forwarder reference

                           E GetUnknownString
                          1C StrConnectState

    USER32.dll
             1400052B0 Import Address Table
             140006148 Import Name Table
                     0 time date stamp
                     0 Index of first forwarder reference

                         268 LoadStringW

    KERNEL32.dll
             140005150 Import Address Table
             140005FE8 Import Name Table
                     0 time date stamp
                     0 Index of first forwarder reference

                         5A3 SetUnhandledExceptionFilter
                         233 GetCurrentProcess
                         5C3 TerminateProcess
                         5E5 UnhandledExceptionFilter
                         30C GetSystemTimeAsFileTime
                         21B GetConsoleOutputCP
                         598 SetThreadUILanguage
                         27F GetLastError
                         185 FileTimeToSystemTime
                         356 GlobalAlloc
                         35D GlobalFree
                         376 HeapSetInformation
                         184 FileTimeToLocalFileTime
                         333 GetTimeFormatW
                         636 WideCharToMultiByte
                         23E GetDateFormatW
                         564 SetLastError
                         2F5 GetStdHandle
                         504 RtlVirtualUnwind
                         1C2 FormatMessageW
                         3E9 LoadLibraryW
                         649 WriteConsoleW
                         297 GetModuleHandleW
                         1C6 FreeLibrary
                         26C GetFileType
                         1F2 GetCommandLineW
                         3EF LocalAlloc
                         3F4 LocalFree
                         5F9 VerSetConditionMask
                         5FD VerifyVersionInfoW
                         19B FindFirstFileW
                         1A7 FindNextFileW
                         190 FindClose
                         262 GetFileAttributesW
                         4FD RtlLookupFunctionEntry
                         238 GetCurrentThreadId
                         234 GetCurrentProcessId
                         470 QueryPerformanceCounter
                         65C __chkstk
                         4F5 RtlCaptureContext
                         414 MultiByteToWideChar
                         32E GetTickCount
                         5B3 Sleep

    msvcrt.dll
             140005300 Import Address Table
             140006198 Import Name Table
                     0 time date stamp
                     0 Index of first forwarder reference

                         507 vswprintf_s
                         50E wcschr
                         459 free
                         4FF vfwprintf
                         462 fwprintf
                         493 malloc
                         525 wcstol
                         528 wcstoul
                         3A1 _wcsnicmp
                         480 iswdigit
                         392 _wcsdup
                          5A _XcptFilter
                          B7 _amsg_exit
                          88 __getmainargs
                          97 __set_app_type
                         43F exit
                         117 _exit
                          CA _cexit
                          99 __setusermatherr
                         189 _initterm
                          5E __C_specific_handler
                         130 _fmode
                          DB _commode
                          34 ?terminate@@YAXXZ
                          8A __iob_func
                         344 _ultoa
                         3F7 _wsetlocale
                         4E9 swprintf_s
                         452 fprintf
                         39B _wcslwr
                         512 wcscpy_s
                         4BE setlocale
                         49F memcpy
                         4A1 memmove
                         4A3 memset
                         50D wcscat_s
                         52D wprintf
                         50F wcscmp

  Summary

        2000 .data
        1000 .pdata
        2000 .rdata
        1000 .reloc
        1000 .rsrc
        4000 .text
