Microsoft (R) COFF/PE Dumper Version 14.29.30137.0
Copyright (C) Microsoft Corporation.  All rights reserved.


Dump of file C:\Windows\WinSxS\wow64_microsoft-windows-imagingengine_31bf3856ad364e35_10.0.25197.1000_none_a67cf3e430d94443\ImagingEngine.dll

File Type: DLL

  Section contains the following exports for ImagingEngine.dll

    00000000 characteristics
    6840CE58 time date stamp
        0.00 version
           1 ordinal base
           2 number of functions
           2 number of names

    ordinal hint RVA      name

          1    0 00037F10 DllCanUnloadNow
          2    1 00037F30 DllGetClassObject

  Image has the following dependencies:

    api-ms-win-crt-runtime-l1-1-0.dll
    api-ms-win-crt-private-l1-1-0.dll
    api-ms-win-crt-string-l1-1-0.dll
    KERNEL32.dll
    ADVAPI32.dll
    PhotoBase.dll
    OLEAUT32.dll
    api-ms-win-crt-math-l1-1-0.dll
    SHLWAPI.dll
    GDI32.dll
    USER32.dll
    ole32.dll
    mscms.dll
    d3d9.dll

  Section contains the following imports:

    api-ms-win-crt-runtime-l1-1-0.dll
              101D8378 Import Address Table
              101D8888 Import Name Table
                     0 time date stamp
                     0 Index of first forwarder reference

                   39 _initterm_e
                   1C _controlfp
                   1B _control87
                   18 _clearfp
                   38 _initterm

    api-ms-win-crt-private-l1-1-0.dll
              101D8254 Import Address Table
              101D8764 Import Name Table
                     0 time date stamp
                     0 Index of first forwarder reference

                  111 _o__fpclass
                  163 _o__initialize_narrow_environment
                  164 _o__initialize_onexit_table
                  166 _o__invalid_parameter_noinfo
                  273 _o__purecall
                  280 _o__recalloc
                  281 _o__register_onexit_function
                  288 _o__seh_filter_dll
                  2A8 _o__strdup
                  2AC _o__stricmp
                   47 _o__CIsqrt
                  483 memmove
                  2EF _o__waccess
                  2FC _o__wcsicmp
                  306 _o__wcsnicmp
                  380 _o_atof
                  381 _o_atoi
                  387 _o_calloc
                  38A _o_ceil
                  3A4 _o_floor
                  3B1 _o_free
                  3C3 _o_isalnum
                  3C4 _o_isalpha
                  3C7 _o_isdigit
                  3CD _o_isspace
                  3DD _o_isxdigit
                  3FA _o_malloc
                  41B _o_qsort
                  438 _o_setlocale
                  452 _o_terminate
                  458 _o_tolower
                  459 _o_toupper
                  477 _o_wmemcpy_s
                   1C __current_exception
                   1D __current_exception_context
                   32 _except_handler4_common
                   46 _o__CIsinh
                   45 _o__CIsin
                   44 _o__CIpow
                   42 _o__CIlog
                   41 _o__CIfmod
                   40 _o__CIexp
                   3F _o__CIcosh
                   3E _o__CIcos
                   3D _o__CIatan2
                   3C _o__CIatan
                   3B _o__CIasin
                   3A _o__CIacos
                   BB _o__cexit
                   B9 _o__callnewh
                   B7 _o__beginthreadex
                  48A wcsrchr
                    1 _CxxThrowException
                   A2 _o__aligned_malloc
                   A1 _o__aligned_free
                   9A _o___stdio_common_vswprintf_s
                   98 _o___stdio_common_vswprintf
                   94 _o___stdio_common_vsprintf
                   EA _o__execute_onexit_table
                   E8 _o__errno
                   88 _o___std_type_info_destroy_list
                   87 _o___std_exception_destroy
                   86 _o___std_exception_copy
                   CF _o__crt_atexit
                   C8 _o__configure_narrow_argv
                   49 _o__CItanh
                   48 _o__CItan
                  485 strchr
                   26 __std_terminate
                   10 __CxxFrameHandler3
                  481 memcmp
                  482 memcpy

    api-ms-win-crt-string-l1-1-0.dll
              101D8390 Import Address Table
              101D88A0 Import Name Table
                     0 time date stamp
                     0 Index of first forwarder reference

                   AA wcspbrk
                   83 memset

    KERNEL32.dll
              101D8074 Import Address Table
              101D8584 Import Name Table
                     0 time date stamp
                     0 Index of first forwarder reference

                  301 GetSystemInfo
                  290 GetModuleHandleA
                  3E8 LoadLibraryW
                  28F GetModuleFileNameW
                  43A OutputDebugStringA
                  5F2 VirtualAlloc
                  5F5 VirtualFree
                  36B HeapFree
                  3E6 LoadLibraryExA
                  144 EncodePointer
                  367 HeapAlloc
                  11E DecodePointer
                  2D1 GetProcessHeap
                  1B7 FlushInstructionCache
                  2CA GetProcAddress
                  391 InterlockedPushEntrySList
                  4EC ResetEvent
                  381 InitializeCriticalSectionAndSpinCount
                  65E lstrcmpiA
                  62A WideCharToMultiByte
                  603 WaitForSingleObject
                  53C SetEvent
                  4F3 ResumeThread
                   D1 CreateEventW
                  402 MapViewOfFile
                  5DC UnmapViewOfFile
                  27B GetLastError
                   DA CreateFileMappingW
                  12A DeleteFileW
                  314 GetTempPath2W
                  312 GetTempFileNameW
                   DD CreateFileW
                   97 CloseHandle
                  559 SetLastError
                  487 RaiseException
                  472 QueryPerformanceFrequency
                  5A8 Sleep
                  1AC FindResourceExW
                  3EB LoadResource
                  3FF LockResource
                  5A7 SizeofResource
                  148 EnterCriticalSection
                  3E1 LeaveCriticalSection
                  390 InterlockedPopEntrySList
                  26F GetFullPathNameA
                  3E5 LoadLibraryA
                   D5 CreateFileA
                   D6 CreateFileMappingA
                  264 GetFileSize
                  5B8 TerminateProcess
                  22F GetCurrentProcess
                  293 GetModuleHandleW
                  3A9 IsProcessorFeaturePresent
                  598 SetUnhandledExceptionFilter
                  5D9 UnhandledExceptionFilter
                  3A1 IsDebuggerPresent
                  385 InitializeSListHead
                  307 GetSystemTimeAsFileTime
                  471 QueryPerformanceCounter
                  133 DisableThreadLibraryCalls
                  5B4 SystemTimeToFileTime
                  305 GetSystemTime
                  230 GetCurrentProcessId
                  234 GetCurrentThreadId
                  125 DeleteCriticalSection
                  380 InitializeCriticalSection
                  604 WaitForSingleObjectEx

    ADVAPI32.dll
              101D8000 Import Address Table
              101D8510 Import Name Table
                     0 time date stamp
                     0 Index of first forwarder reference

                  28E RegQueryValueExA
                  28F RegQueryValueExW
                  31C TraceEvent
                  282 RegOpenKeyExW
                  15E GetTraceLoggerHandle
                  15D GetTraceEnableLevel
                  15C GetTraceEnableFlags
                  2AB RegisterTraceGuidsW
                  32B UnregisterTraceGuids
                  251 RegCloseKey
                  281 RegOpenKeyExA

    PhotoBase.dll
              101D8194 Import Address Table
              101D86A4 Import Name Table
                     0 time date stamp
                     0 Index of first forwarder reference

                   13 ?BaseAtlThrow@ATL@@YGXJ@Z
                   28 ?Initialize@Base@@YGXXZ
                   39 ?Throw@Base@@YGXJ@Z
                   2C ?New@BasePrivate@@YAPAXI_N@Z
                    5 ??1Exception@Base@@UAE@XZ
                   22 ?GetBaseStringManager@String@Base@@SGAAVCAtlStringMgr@ATL@@XZ
                   20 ?GetAssertCallback@Base@@YGAAP6G_NPBDH0@ZXZ
                   3A ?ThrowLastError@Base@@YGXXZ
                   2B ?IsVistaOrGreater@OS@Base@@YG_NXZ
                   1E ?Delete@BasePrivate@@YAXPAX@Z

    OLEAUT32.dll
              101D8184 Import Address Table
              101D8694 Import Name Table
                     0 time date stamp
                     0 Index of first forwarder reference

                      Ordinal     4
                      Ordinal     6
                      Ordinal     2

    api-ms-win-crt-math-l1-1-0.dll
              101D8248 Import Address Table
              101D8758 Import Name Table
                     0 time date stamp
                     0 Index of first forwarder reference

                   53 _isnan
                   4E _finite

    SHLWAPI.dll
              101D81C0 Import Address Table
              101D86D0 Import Name Table
                     0 time date stamp
                     0 Index of first forwarder reference

                   8F PathRemoveFileSpecW
                   49 PathFileExistsW

    GDI32.dll
              101D8030 Import Address Table
              101D8540 Import Name Table
                     0 time date stamp
                     0 Index of first forwarder reference

                  332 RectInRegion
                   31 CreateCompatibleDC
                   38 CreateDIBitmap
                   13 BitBlt
                  376 SelectObject
                  190 DeleteObject
                   54 CreateRectRgnIndirect
                   53 CreateRectRgn
                   22 CombineRgn
                  2CF GetRgnBox
                  39F SetRectRgn
                  18D DeleteDC
                   34 CreateDCW
                  28D GetDeviceCaps
                  2AB GetICMProfileW
                  2CD GetRegionData

    USER32.dll
              101D81CC Import Address Table
              101D86DC Import Name Table
                     0 time date stamp
                     0 Index of first forwarder reference

                  378 SetWindowLongW
                  220 InvalidateRect
                  131 GetClientRect
                  1E7 GetWindowLongW
                  221 InvalidateRgn
                   FE EnumDisplayMonitors
                  3B9 UnregisterClassA
                  308 ScreenToClient
                  1C3 GetSysColor
                  30C ScrollWindowEx
                   11 BeginPaint
                  2FB ReleaseDC
                  141 GetDC
                  244 IsWindow
                  18B GetMonitorInfoW
                   B5 DestroyWindow
                  1D5 GetUpdateRgn
                  31C SetCapture
                   F4 EndPaint
                   76 CreateWindowExW
                  12A GetClassInfoExW
                  2FA ReleaseCapture
                  255 LoadCursorW
                  2DB RegisterClassExW
                  1C7 GetSystemMetrics
                   A7 DefWindowProcW
                   21 CallWindowProcW
                  1EE GetWindowRect
                  140 GetCursorPos
                  326 SetCursor

    ole32.dll
              101D83D0 Import Address Table
              101D88E0 Import Name Table
                     0 time date stamp
                     0 Index of first forwarder reference

                   28 CoCreateInstance
                  195 PropVariantClear

    mscms.dll
              101D83A4 Import Address Table
              101D88B4 Import Name Table
                     0 time date stamp
                     0 Index of first forwarder reference

                   1F CreateMultiProfileTransform
                   37 GetColorProfileHeader
                   58 OpenColorProfileW
                   36 GetColorProfileFromHandle
                   56 IsColorProfileValid
                   64 TranslateBitmapBits
                   27 DeleteColorTransform
                   33 GetColorDirectoryW
                    4 CloseColorProfile
                   34 GetColorProfileElement

    d3d9.dll
              101D839C Import Address Table
              101D88AC Import Name Table
                     0 time date stamp
                     0 Index of first forwarder reference

                    A Direct3DCreate9

  Summary

        6000 .data
        2000 .idata
       11000 .reloc
        1000 .rsrc
      1D1000 .text
